LAMMPS (3 Mar 2020)
read_restart attract.restart
  restoring atom style full from restart
  orthogonal box = (0.713543 0.713543 0.713543) to (33.0765 33.0765 33.0765)
  restoring pair style hybrid/overlay from restart
  restoring bond style fene from restart
  27475 atoms
  8700 bonds
  read_restart CPU = 2.65544 secs

#-------------------system defination------------------

pair_style hybrid/overlay lj/cut 2.5 coul/long 2.5
pair_modify pair lj/cut shift yes
pair_coeff * * lj/cut 1.0 1.0 2.5
pair_coeff 2*5 2 coul/long
pair_coeff 2*5 3 coul/long
pair_coeff 2*5 4 coul/long
pair_coeff 2*5 5 coul/long

fix pt exc nvt temp 0.8 0.8 0.5
  fix style: nvt, fix ID: pt
fix ri filler rigid/nvt molecule temp 0.8 0.8 0.5
25 rigid bodies with 475 atoms
  fix style: rigid/nvt, fix ID: ri

neigh_modify every 1 delay 0 exclude molecule/inter filler
thermo 10000
thermo_style custom step temp press vol
kspace_style pppm 0.0001

write_data para.data pair ij
PPPM initialization ...
  G vector (1/distance) = 1.20772
  grid = 108 108 108
  stencil order = 5
  estimated absolute RMS force accuracy = 0.000134208
  estimated relative force accuracy = 0.000134208
  3d grid and FFT values/proc = 15625 5832
All restart file global fix info was re-assigned
Unused restart file peratom fix info:
  fix style: STORE, fix ID: par_COMPUTE_STORE
  update every 1 steps, delay 0 steps, check yes
#---------------system defination ends-----------------

run 1000000
PPPM initialization ...
  G vector (1/distance) = 1.20772
  grid = 108 108 108
  stencil order = 5
  estimated absolute RMS force accuracy = 0.000134208
  estimated relative force accuracy = 0.000134208
  3d grid and FFT values/proc = 15625 5832
  update every 1 steps, delay 0 steps, check yes
Step Temp Press Volume
12000000   0.80161116  -0.37287802    33895.565
Averages over the last 51 of 101 rows, steps 12500000 to 13000000:
Temp Press Volume
0.79984 -0.168665 33895.6
Loop time of 11580.1 on 216 procs for 1000000 steps with 27475 atoms

reset_timestep 0
timestep 0.005

#------------------STARTING TESTS--------------------#
#--------------------GREEN KUBO----------------------#

variable pxy equal pxy
variable pxz equal pxz
variable pyz equal pyz
variable s equal 1
fix SS1 all ave/correlate $s 1000 10000 v_pxy v_pxz v_pyz type auto 	file SOSt.dat ave running
fix SS1 all ave/correlate 1 1000 10000 v_pxy v_pxz v_pyz type auto 	file SOSt.dat ave running

#---------------------------------Green Kubo 2------------------------------------#

variable stwo equal 50
fix SS2 all ave/correlate 50 4000 200000 v_pxy v_pxz v_pyz type auto 	file Sauto.dat ave running

#--------------------isometric heat capacity-----------------

variable E equal etotal
variable sqE equal v_E*v_E

#--------------------------Mean Square Displacements------------------------------#

compute mschainA1 polyA msd
compute mschainA2 polyA msd com yes
compute mscounter1 counterions msd
compute mscounter2 counterions msd com yes
compute msfiller1 filler msd
compute msfiller2 filler msd com yes
compute mswater1 water msd
compute mswater2 water msd com yes

variable msdcA1 equal c_mschainA1[4]
variable msdcA2 equal c_mschainA2[4]
variable msdcoun1 equal c_mscounter1[4]
variable msdcoun2 equal c_mscounter2[4]
variable msdfiller1 equal c_msfiller1[4]
variable msdfiller2 equal c_msfiller2[4]
variable msdwater1 equal c_mswater1[4]
variable msdwater2 equal c_mswater2[4]

compute cA polyA chunk/atom molecule
compute chainA polyA msd/chunk cA
variable msdcmA equal ave(c_chainA[4])

#------------------------------Radial Distribution--------------------------------#

compute rdfillerA all rdf 50 4 2
compute rdAcounterion all rdf 50 2 3
compute rdfillercounterion all rdf 50 4 3
compute rdfillerfiller all rdf 50 4 4
compute rdcounterioncounterion all rdf 50 3 3

fix rdfiA all ave/time 10 100 10000 c_rdfillerA[*] file tmpFiller_A.rdf mode vector ave running
fix rdAcoun all ave/time 10 100 10000 c_rdAcounterion[*] file tmpA_Counterion.rdf mode vector ave running
fix rdficoun all ave/time 10 100 10000 c_rdfillercounterion[*] file tmpFiller_Counterion.rdf mode vector ave running
fix rdfilfil all ave/time 10 100 10000 c_rdfillerfiller[*] file tmpFiller_Filler.rdf mode vector ave running
fix rdcouncoun all ave/time 10 100 10000 c_rdcounterioncounterion[*] file tmpCounterion_Counterion.rdf mode vector ave running

#-------------------------------Radius of Gyration--------------------------------#

compute gyrA polyA gyration
fix rgnetA all ave/time 100 100 10000 c_gyrA file gyrat_A.txt mode scalar ave running

compute permA polyA gyration/chunk cA
fix rgmolA all ave/time 100 100 10000 c_permA file gmol_A.txt mode vector ave running

#------------------------Running All The Above Tests------------------------------#

thermo_style custom step temp press pe ke epair ebond etotal
thermo 10000
dump 1 chain  custom 50000 chains_after.lammpstrj id mol type x y z
dump 2 filler custom 50000 filler_after.lammpstrj id mol type x y z
dump 3 water  custom 50000 water_after.lammpstrj  id mol type x y z
dump 4 counterions  custom 50000 counterions_after.lammpstrj  id mol type x y z
dump 5 salt custom 50000 salt_after.lammpstrj  id mol type x y z
run 6000000
PPPM initialization ...
  G vector (1/distance) = 1.20772
  grid = 108 108 108
  stencil order = 5
  estimated absolute RMS force accuracy = 0.000134208
  estimated relative force accuracy = 0.000134208
  3d grid and FFT values/proc = 15625 5832
  update every 1 steps, delay 0 steps, check yes
Step Temp Press PotEng KinEng E_pair E_bond TotEng
0   0.79386798 -0.063809727    1.2984077    1.1723386   -5.2271108    6.5255185    2.4707463
Averages over the last 301 of 601 rows, steps 3000000 to 6000000:
Temp Press PotEng KinEng E_pair E_bond TotEng
0.800071 -0.170356 1.2954 1.1815 -5.22958 6.52498 2.4769
Loop time of 71614.4 on 216 procs for 6000000 steps with 27475 atoms

write_restart restart_aftertest.restart
PPPM initialization ...
  G vector (1/distance) = 1.20772
  grid = 108 108 108
  stencil order = 5
  estimated absolute RMS force accuracy = 0.000134208
  estimated relative force accuracy = 0.000134208
  3d grid and FFT values/proc = 15625 5832
  update every 1 steps, delay 0 steps, check yes

#----------------Turn off all fixes, dumps in order to test Shear-----------------#

unfix SS1
unfix SS2
unfix Cp
unfix msd1
unfix msd2
unfix msd3
unfix msd4
unfix msd5
unfix msd6
unfix msd7
unfix msd8
unfix msd9
unfix rdfiA
unfix rdAcoun
unfix rdficoun
unfix rdfilfil
unfix rdcouncoun
unfix rgnetA
unfix rgmolA

#------------------------------true shear, elongation-----------------------------#

thermo_style custom step lx ly lz press pxx pyy pzz pe temp
thermo 10
fix 2 all deform 1 x erate 0.40 y volume z volume units box

compute epair all pe pair
compute ebond all pe bond
compute epot all pe
compute ekine all ke
compute vpre all pressure thermo_temp virial

variable s_xx  equal c_vpre[1]
variable s_yy  equal c_vpre[2]
variable s_zz  equal c_vpre[3]
variable n_stress  equal "v_s_xx-0.5*(v_s_yy+v_s_zz)"
run 100
PPPM initialization ...
  G vector (1/distance) = 1.20772
  grid = 108 108 108
  stencil order = 5
  estimated absolute RMS force accuracy = 0.000134208
  estimated relative force accuracy = 0.000134208
  3d grid and FFT values/proc = 15625 5832
  update every 1 steps, delay 0 steps, check yes
Step Lx Ly Lz Press Pxx Pyy Pzz PotEng Temp
6000000    32.362914    32.362914    32.362914  -0.33686525  -0.34426989  -0.48861854  -0.17770732     1.293027   0.79601018
Loop time of 1.54256 on 216 procs for 100 steps with 27475 atoms

unfix 2

variable e1 equal c_epair
variable e2 equal c_ebond
variable e3 equal c_epot
variable e4 equal c_ekine

thermo 10000
run 100000
PPPM initialization ...
  G vector (1/distance) = 1.21926
  grid = 125 108 108
  stencil order = 5
  estimated absolute RMS force accuracy = 0.000111297
  estimated relative force accuracy = 0.000111297
  3d grid and FFT values/proc = 16875 6804
  update every 1 steps, delay 0 steps, check yes
Step Lx Ly Lz Press Pxx Pyy Pzz PotEng Temp
6000100    38.835497    29.543164    29.543164   0.37295398   -0.9644213    1.0658109    1.0174724    1.4657688   0.92738084
Averages over the last 6 of 12 rows, steps 6060000 to 6100100:
Lx Ly Lz Press Pxx Pyy Pzz PotEng Temp
38.8355 29.5432 29.5432 -0.137795 -0.160833 -0.116283 -0.136269 1.30099 0.799304
Loop time of 1331.78 on 216 procs for 100000 steps with 27475 atoms
